4
Coordinates from ORCA-job calc
  N   1.08762135587790     -0.33970869648478     -0.00977430114357
  H   2.00786416835415      0.05911546456010      0.00669158219958
  H   0.58935466206496     -0.48722934791672      0.84833599893152
  H   0.66558981370299     -0.59199741015860     -0.88409326998753
