13
mep_MEP_trj_step6
C       -0.8981550        0.3094860        0.1309499
C        0.4171240        0.1475120        0.2032089
N        1.3270610       -0.9700550       -2.4098701
H       -1.1426960        0.5758850        2.5148399
H       -1.5718160       -0.5249580        0.2060909
H       -1.3421060        1.2755310       -0.0328641
H        0.8600140       -0.8188840        0.3455289
H        1.0944700        0.9762180        0.1090099
O       -1.1836060        0.6550830        3.4733699
H       -1.9846710        1.1423740        3.6804189
H        1.0693590       -1.7229490       -3.0337731
H        2.3371170       -0.9423630       -2.3573021
H        1.0179050       -0.1028800       -2.8296081
