31
Generated by LibRR
C       0.484265      0.740225      1.494160
O       -0.668806      0.384502      1.591189
C       1.430078      0.658469      2.659487
H       1.357025      -0.351068      3.086066
H       1.094572      1.371868      3.426983
H       2.470021      0.879728      2.393397
C       0.984715      1.290526      0.152226
C       2.207563      0.511665      -0.348391
O       3.017681      0.914968      -1.130533
O       2.187291      -0.719424      0.151386
C       3.226307      -1.603032      -0.285137
H       3.164353      -1.748270      -1.371287
H       3.058398      -2.548475      0.238580
H       4.207160      -1.186197      -0.023323
C       -0.089184      1.313576      -0.945828
H       0.392133      1.643280      -1.875514
H       -0.852992      2.060618      -0.697070
C       -0.731457      -0.061477      -1.164365
H       -0.026636      -0.895140      -1.035876
H       -1.085267      -0.143180      -2.218068
C       -1.991278      -0.355898      -0.468661
C       -3.009308      0.682489      -0.265680
H       -3.245287      1.108494      -1.256475
H       -2.590901      1.502510      0.336021
H       -3.918788      0.287940      0.197902
C       -2.253513      -1.720524      -0.028680
H       -1.620013      -2.467520      -0.519763
H       -3.319325      -1.974948      -0.044905
H       -1.949787      -1.666610      1.041371
I       -3.530462      -1.275445      -3.623977
I       1.601442      3.366352      0.534764
