4
Coordinates from ORCA-job calc
  N   1.08761423578616     -0.33995168723591     -0.00971392634731
  H   1.99800292019239      0.05491003900942      0.00649004594993
  H   0.59468407755073     -0.48555653126959      0.83928987455894
  H   0.67012876647072     -0.58922181050392     -0.87490598416156
